<?xml version='1.0' encoding='utf-8'?>
<routes>
    <flow id="1016548847_19442635.qPKW.420" departSpeed="max" departPos="last" departLane="best" route="1016548847_19442635.qPKW.420" number="2173" begin="25200" end="28800.0" type="maidm_vtypes_distribution" />
    <flow id="1016548860.217_971686034.qPKW.420" departSpeed="max" departPos="last" departLane="best" route="1016548860.217_971686034.qPKW.420" number="631" begin="25200" end="28800.0" type="maidm_vtypes_distribution" />
    <flow id="1070403831#1-AddedOnRampEdge_1040737038.qPKW.420" departSpeed="max" departPos="last" departLane="best" route="1070403831#1-AddedOnRampEdge_1040737038.qPKW.420" number="722" begin="25200" end="28800.0" type="maidm_vtypes_distribution" />
    <flow id="108162303_1141876515.qPKW.420" departSpeed="max" departPos="last" departLane="best" route="108162303_1141876515.qPKW.420" number="408" begin="25200" end="28800.0" type="maidm_vtypes_distribution" />
    <flow id="108162303_988591740#1.qPKW.420" departSpeed="max" departPos="last" departLane="best" route="108162303_988591740#1.qPKW.420" number="3040" begin="25200" end="28800.0" type="maidm_vtypes_distribution" />
    <flow id="277208926_634155175.qPKW.420" departSpeed="max" departPos="last" departLane="best" route="277208926_634155175.qPKW.420" number="1876" begin="25200" end="28800.0" type="maidm_vtypes_distribution" />
    <flow id="277208927#1-AddedOnRampEdge_1016548859.qPKW.420" departSpeed="max" departPos="last" departLane="best" route="277208927#1-AddedOnRampEdge_1016548859.qPKW.420" number="837" begin="25200" end="28800.0" type="maidm_vtypes_distribution" />
    <flow id="277208927#1-AddedOnRampEdge_971686034.qPKW.420" departSpeed="max" departPos="last" departLane="best" route="277208927#1-AddedOnRampEdge_971686034.qPKW.420" number="241" begin="25200" end="28800.0" type="maidm_vtypes_distribution" />
    <flow id="27828382_1040737038.qPKW.420" departSpeed="max" departPos="last" departLane="best" route="27828382_1040737038.qPKW.420" number="1" begin="25200" end="28800.0" type="maidm_vtypes_distribution" />
    <flow id="27828382_634155175.qPKW.420" departSpeed="max" departPos="last" departLane="best" route="27828382_634155175.qPKW.420" number="2356" begin="25200" end="28800.0" type="maidm_vtypes_distribution" />
    <flow id="1016548847_19442635.qPKW.480.0" departSpeed="max" departPos="last" departLane="best" route="1016548847_19442635.qPKW.480.0" number="1290" begin="28800.0" end="32400.0" type="maidm_vtypes_distribution" />
    <flow id="1016548860.217_971686034.qPKW.480.0" departSpeed="max" departPos="last" departLane="best" route="1016548860.217_971686034.qPKW.480.0" number="547" begin="28800.0" end="32400.0" type="maidm_vtypes_distribution" />
    <flow id="1070403831#1-AddedOnRampEdge_1040737038.qPKW.480.0" departSpeed="max" departPos="last" departLane="best" route="1070403831#1-AddedOnRampEdge_1040737038.qPKW.480.0" number="800" begin="28800.0" end="32400.0" type="maidm_vtypes_distribution" />
    <flow id="108162303_1141876515.qPKW.480.0" departSpeed="max" departPos="last" departLane="best" route="108162303_1141876515.qPKW.480.0" number="274" begin="28800.0" end="32400.0" type="maidm_vtypes_distribution" />
    <flow id="108162303_988591740#1.qPKW.480.0" departSpeed="max" departPos="last" departLane="best" route="108162303_988591740#1.qPKW.480.0" number="2918" begin="28800.0" end="32400.0" type="maidm_vtypes_distribution" />
    <flow id="277208926_634155175.qPKW.480.0" departSpeed="max" departPos="last" departLane="best" route="277208926_634155175.qPKW.480.0" number="610" begin="28800.0" end="32400.0" type="maidm_vtypes_distribution" />
    <flow id="277208927#1-AddedOnRampEdge_1016548859.qPKW.480.0" departSpeed="max" departPos="last" departLane="best" route="277208927#1-AddedOnRampEdge_1016548859.qPKW.480.0" number="868" begin="28800.0" end="32400.0" type="maidm_vtypes_distribution" />
    <flow id="277208927#1-AddedOnRampEdge_971686034.qPKW.480.0" departSpeed="max" departPos="last" departLane="best" route="277208927#1-AddedOnRampEdge_971686034.qPKW.480.0" number="111" begin="28800.0" end="32400.0" type="maidm_vtypes_distribution" />
    <flow id="27828382_1040737038.qPKW.480.0" departSpeed="max" departPos="last" departLane="best" route="27828382_1040737038.qPKW.480.0" number="78" begin="28800.0" end="32400.0" type="maidm_vtypes_distribution" />
    <flow id="27828382_634155175.qPKW.480.0" departSpeed="max" departPos="last" departLane="best" route="27828382_634155175.qPKW.480.0" number="3615" begin="28800.0" end="32400.0" type="maidm_vtypes_distribution" />
    <flow id="1016548847_19442635.qPKW.540.0" departSpeed="max" departPos="last" departLane="best" route="1016548847_19442635.qPKW.540.0" number="27" begin="32400.0" end="36000.0" type="maidm_vtypes_distribution" />
    <flow id="1016548860.217_988591740#1.qPKW.540.0" departSpeed="max" departPos="last" departLane="best" route="1016548860.217_988591740#1.qPKW.540.0" number="4" begin="32400.0" end="36000.0" type="maidm_vtypes_distribution" />
    <flow id="1070403831#1-AddedOnRampEdge_19442635.qPKW.540.0" departSpeed="max" departPos="last" departLane="best" route="1070403831#1-AddedOnRampEdge_19442635.qPKW.540.0" number="6" begin="32400.0" end="36000.0" type="maidm_vtypes_distribution" />
    <flow id="108162303_1141876515.qPKW.540.0" departSpeed="max" departPos="last" departLane="best" route="108162303_1141876515.qPKW.540.0" number="18" begin="32400.0" end="36000.0" type="maidm_vtypes_distribution" />
    <flow id="108162303_988591740#1.qPKW.540.0" departSpeed="max" departPos="last" departLane="best" route="108162303_988591740#1.qPKW.540.0" number="13" begin="32400.0" end="36000.0" type="maidm_vtypes_distribution" />
    <flow id="277208926_634155175.qPKW.540.0" departSpeed="max" departPos="last" departLane="best" route="277208926_634155175.qPKW.540.0" number="7" begin="32400.0" end="36000.0" type="maidm_vtypes_distribution" />
    <flow id="277208927#1-AddedOnRampEdge_1016548859.qPKW.540.0" departSpeed="max" departPos="last" departLane="best" route="277208927#1-AddedOnRampEdge_1016548859.qPKW.540.0" number="16" begin="32400.0" end="36000.0" type="maidm_vtypes_distribution" />
    <flow id="27828382_634155175.qPKW.540.0" departSpeed="max" departPos="last" departLane="best" route="27828382_634155175.qPKW.540.0" number="21" begin="32400.0" end="36000.0" type="maidm_vtypes_distribution" />
</routes>