<?xml version='1.0' encoding='utf-8'?>
<routes>
    <vTypeDistribution id="maidm_vtypes_distribution">
        <vType id="maidm_1" carFollowModel="IDM" minGap="4.551254000794509" desiredMaxSpeed="26.992315322245652" accel="0.12350189309606191" decel="1.6508256976619529" tau="0.9624031173119598" probability="0.05" />
        <vType id="maidm_2" carFollowModel="IDM" minGap="4.6055153806962155" desiredMaxSpeed="29.365527910113755" accel="0.12228845086758877" decel="1.6553603736829292" tau="0.9487010277289223" probability="0.05" />
        <vType id="maidm_3" carFollowModel="IDM" minGap="4.511462383657554" desiredMaxSpeed="27.169942053889223" accel="0.12156837566009289" decel="1.6896362941213712" tau="0.9701390908927614" probability="0.05" />
        <vType id="maidm_4" carFollowModel="IDM" minGap="4.53058632702178" desiredMaxSpeed="28.63122697947412" accel="0.12504452128724466" decel="1.69630586548354" tau="0.9534193812516794" probability="0.05" />
        <vType id="maidm_5" carFollowModel="IDM" minGap="4.659906655762954" desiredMaxSpeed="27.012046945000336" accel="0.12066600870211752" decel="1.680546782737512" tau="0.9661306777386773" probability="0.05" />
        <vType id="maidm_6" carFollowModel="IDM" minGap="4.604362052847255" desiredMaxSpeed="27.946814879789194" accel="0.11923433685570667" decel="1.6953069291624638" tau="0.9649979781845592" probability="0.05" />
        <vType id="maidm_7" carFollowModel="IDM" minGap="4.637802709913945" desiredMaxSpeed="28.480458321301704" accel="0.11943038893606887" decel="1.6817307583811654" tau="0.9704526348724104" probability="0.05" />
        <vType id="maidm_8" carFollowModel="IDM" minGap="4.54371992233662" desiredMaxSpeed="26.26569156264349" accel="0.12317807435759034" decel="1.68457216012551" tau="0.9629428518098401" probability="0.05" />
        <vType id="maidm_9" carFollowModel="IDM" minGap="4.6002834781621145" desiredMaxSpeed="27.678030269029325" accel="0.1210690701542212" decel="1.7173310141360958" tau="0.9790958648566006" probability="0.05" />
        <vType id="maidm_10" carFollowModel="IDM" minGap="4.573972656822562" desiredMaxSpeed="30.477781348211014" accel="0.1233829192029465" decel="1.6602263022921073" tau="0.9585515042617719" probability="0.05" />
        <vType id="maidm_11" carFollowModel="IDM" minGap="4.651390576130348" desiredMaxSpeed="28.778332219449467" accel="0.11882035412262626" decel="1.6804419853445278" tau="0.9743717855935257" probability="0.05" />
        <vType id="maidm_12" carFollowModel="IDM" minGap="4.527359493444988" desiredMaxSpeed="27.572228506898583" accel="0.12264146044627791" decel="1.6709479099827078" tau="0.974694221333751" probability="0.05" />
        <vType id="maidm_13" carFollowModel="IDM" minGap="4.5106282323252636" desiredMaxSpeed="26.86961536199611" accel="0.1204974287120954" decel="1.6822345248593802" tau="0.9678860639748433" probability="0.05" />
        <vType id="maidm_14" carFollowModel="IDM" minGap="4.572218406530797" desiredMaxSpeed="26.995770166240536" accel="0.12190642702775543" decel="1.660194159443298" tau="0.9653928441270453" probability="0.05" />
        <vType id="maidm_15" carFollowModel="IDM" minGap="4.5253360632605375" desiredMaxSpeed="26.532648144958603" accel="0.12224473086938467" decel="1.6876120705246411" tau="0.9613965364420409" probability="0.05" />
        <vType id="maidm_16" carFollowModel="IDM" minGap="4.564238358560094" desiredMaxSpeed="26.469605052990794" accel="0.12394003030732854" decel="1.6947459380665408" tau="0.9602012927632626" probability="0.05" />
        <vType id="maidm_17" carFollowModel="IDM" minGap="4.532817160001594" desiredMaxSpeed="25.548374342393146" accel="0.12351417753938157" decel="1.6847546891122347" tau="0.9644186373620203" probability="0.05" />
        <vType id="maidm_18" carFollowModel="IDM" minGap="4.550887104532671" desiredMaxSpeed="27.18772419643988" accel="0.12191395836078144" decel="1.6889464980040776" tau="0.9681159979594115" probability="0.05" />
        <vType id="maidm_19" carFollowModel="IDM" minGap="4.542020928851697" desiredMaxSpeed="26.55119285293674" accel="0.12291597717431611" decel="1.6683350753864048" tau="0.9543172661182584" probability="0.05" />
        <vType id="maidm_20" carFollowModel="IDM" minGap="4.577460086043459" desiredMaxSpeed="27.51246190997538" accel="0.12472058232536502" decel="1.6829866203979933" tau="0.9608233552654939" probability="0.05" />
    </vTypeDistribution>
    <route id="1016548847_19442635.qPKW.420" edges="1016548847 19441652#1-AddedOnRampEdge 19441652#1 992666043 19442635" />
    <route id="1016548860.217_971686034.qPKW.420" edges="1016548860.217 963570022#1-AddedOnRampEdge 963570022#1 963570020#1-AddedOnRampEdge 963570020#1 988591741 180933400 971686034" />
    <route id="1070403831#1-AddedOnRampEdge_1040737038.qPKW.420" edges="1070403831#1-AddedOnRampEdge 977008894 977008893 977008892 1138588478 1138588478-AddedOffRampEdge 1040737038" />
    <route id="108162303_1141876515.qPKW.420" edges="108162303 977816372 977816372.143 634155184 963570018 963570018-AddedOffRampEdge 963570017 1141876515" />
    <route id="108162303_988591740#1.qPKW.420" edges="108162303 977816372 977816372.143 634155184 963570018 963570018-AddedOffRampEdge 963570019 963570020#0 963570020#1-AddedOnRampEdge 963570020#1 988591741 988591740#0 988591740#1-AddedOnRampEdge 988591740#1" />
    <route id="277208926_634155175.qPKW.420" edges="277208926 634155175-AddedOnRampEdge 634155175" />
    <route id="277208927#1-AddedOnRampEdge_1016548859.qPKW.420" edges="277208927#1-AddedOnRampEdge 963570018 963570018-AddedOffRampEdge 963570019 1016548859" />
    <route id="277208927#1-AddedOnRampEdge_971686034.qPKW.420" edges="277208927#1-AddedOnRampEdge 963570018 963570018-AddedOffRampEdge 963570019 963570020#0 963570020#1-AddedOnRampEdge 963570020#1 988591741 180933400 971686034" />
    <route id="27828382_1040737038.qPKW.420" edges="27828382 27828382-AddedOffRampEdge 974949114 977008894 977008893 977008892 1138588478 1138588478-AddedOffRampEdge 1040737038" />
    <route id="27828382_634155175.qPKW.420" edges="27828382 27828382-AddedOffRampEdge 974949114 977008894 977008893 977008892 977008891 992666043 992666042 634155175-AddedOnRampEdge 634155175" />
    <route id="1016548847_19442635.qPKW.480.0" edges="1016548847 19441652#1-AddedOnRampEdge 19441652#1 992666043 19442635" />
    <route id="1016548860.217_971686034.qPKW.480.0" edges="1016548860.217 963570022#1-AddedOnRampEdge 963570022#1 963570020#1-AddedOnRampEdge 963570020#1 988591741 180933400 971686034" />
    <route id="1070403831#1-AddedOnRampEdge_1040737038.qPKW.480.0" edges="1070403831#1-AddedOnRampEdge 977008894 977008893 977008892 1138588478 1138588478-AddedOffRampEdge 1040737038" />
    <route id="108162303_1141876515.qPKW.480.0" edges="108162303 977816372 977816372.143 634155184 963570018 963570018-AddedOffRampEdge 963570017 1141876515" />
    <route id="108162303_988591740#1.qPKW.480.0" edges="108162303 977816372 977816372.143 634155184 963570018 963570018-AddedOffRampEdge 963570019 963570020#0 963570020#1-AddedOnRampEdge 963570020#1 988591741 988591740#0 988591740#1-AddedOnRampEdge 988591740#1" />
    <route id="277208926_634155175.qPKW.480.0" edges="277208926 634155175-AddedOnRampEdge 634155175" />
    <route id="277208927#1-AddedOnRampEdge_1016548859.qPKW.480.0" edges="277208927#1-AddedOnRampEdge 963570018 963570018-AddedOffRampEdge 963570019 1016548859" />
    <route id="277208927#1-AddedOnRampEdge_971686034.qPKW.480.0" edges="277208927#1-AddedOnRampEdge 963570018 963570018-AddedOffRampEdge 963570019 963570020#0 963570020#1-AddedOnRampEdge 963570020#1 988591741 180933400 971686034" />
    <route id="27828382_1040737038.qPKW.480.0" edges="27828382 27828382-AddedOffRampEdge 974949114 977008894 977008893 977008892 1138588478 1138588478-AddedOffRampEdge 1040737038" />
    <route id="27828382_634155175.qPKW.480.0" edges="27828382 27828382-AddedOffRampEdge 974949114 977008894 977008893 977008892 977008891 992666043 992666042 634155175-AddedOnRampEdge 634155175" />
    <route id="1016548847_19442635.qPKW.540.0" edges="1016548847 19441652#1-AddedOnRampEdge 19441652#1 992666043 19442635" />
    <route id="1016548860.217_988591740#1.qPKW.540.0" edges="1016548860.217 963570022#1-AddedOnRampEdge 963570022#1 963570020#1-AddedOnRampEdge 963570020#1 988591741 988591740#0 988591740#1-AddedOnRampEdge 988591740#1" />
    <route id="1070403831#1-AddedOnRampEdge_19442635.qPKW.540.0" edges="1070403831#1-AddedOnRampEdge 977008894 977008893 977008892 977008891 992666043 19442635" />
    <route id="108162303_1141876515.qPKW.540.0" edges="108162303 977816372 977816372.143 634155184 963570018 963570018-AddedOffRampEdge 963570017 1141876515" />
    <route id="108162303_988591740#1.qPKW.540.0" edges="108162303 977816372 977816372.143 634155184 963570018 963570018-AddedOffRampEdge 963570019 963570020#0 963570020#1-AddedOnRampEdge 963570020#1 988591741 988591740#0 988591740#1-AddedOnRampEdge 988591740#1" />
    <route id="277208926_634155175.qPKW.540.0" edges="277208926 634155175-AddedOnRampEdge 634155175" />
    <route id="277208927#1-AddedOnRampEdge_1016548859.qPKW.540.0" edges="277208927#1-AddedOnRampEdge 963570018 963570018-AddedOffRampEdge 963570019 1016548859" />
    <route id="27828382_634155175.qPKW.540.0" edges="27828382 27828382-AddedOffRampEdge 974949114 977008894 977008893 977008892 977008891 992666043 992666042 634155175-AddedOnRampEdge 634155175" />
</routes>