<additional>
    <flow id="1016548847_19442635.qPKW.360" departSpeed="max" departPos="last" departLane="best" route="1016548847_19442635.qPKW.360" number="1072" begin="21600" end="25200.0"/>
    <flow id="1016548860.217_971686034.qPKW.360" departSpeed="max" departPos="last" departLane="best" route="1016548860.217_971686034.qPKW.360" number="456" begin="21600" end="25200.0"/>
    <flow id="1070403831#1-AddedOnRampEdge_1040737038.qPKW.360" departSpeed="max" departPos="last" departLane="best" route="1070403831#1-AddedOnRampEdge_1040737038.qPKW.360" number="434" begin="21600" end="25200.0"/>
    <flow id="108162303_1141876515.qPKW.360" departSpeed="max" departPos="last" departLane="best" route="108162303_1141876515.qPKW.360" number="528" begin="21600" end="25200.0"/>
    <flow id="108162303_988591740#1.qPKW.360" departSpeed="max" departPos="last" departLane="best" route="108162303_988591740#1.qPKW.360" number="1935" begin="21600" end="25200.0"/>
    <flow id="277208926_634155175.qPKW.360" departSpeed="max" departPos="last" departLane="best" route="277208926_634155175.qPKW.360" number="662" begin="21600" end="25200.0"/>
    <flow id="277208927#1-AddedOnRampEdge_1016548859.qPKW.360" departSpeed="max" departPos="last" departLane="best" route="277208927#1-AddedOnRampEdge_1016548859.qPKW.360" number="527" begin="21600" end="25200.0"/>
    <flow id="277208927#1-AddedOnRampEdge_971686034.qPKW.360" departSpeed="max" departPos="last" departLane="best" route="277208927#1-AddedOnRampEdge_971686034.qPKW.360" number="172" begin="21600" end="25200.0"/>
    <flow id="27828382_1040737038.qPKW.360" departSpeed="max" departPos="last" departLane="best" route="27828382_1040737038.qPKW.360" number="153" begin="21600" end="25200.0"/>
    <flow id="27828382_634155175.qPKW.360" departSpeed="max" departPos="last" departLane="best" route="27828382_634155175.qPKW.360" number="3210" begin="21600" end="25200.0"/>
    <flow id="1016548847_19442635.qPKW.420.0" departSpeed="max" departPos="last" departLane="best" route="1016548847_19442635.qPKW.420.0" number="1616" begin="25200.0" end="28800.0"/>
    <flow id="1016548860.217_971686034.qPKW.420.0" departSpeed="max" departPos="last" departLane="best" route="1016548860.217_971686034.qPKW.420.0" number="770" begin="25200.0" end="28800.0"/>
    <flow id="1070403831#1-AddedOnRampEdge_1040737038.qPKW.420.0" departSpeed="max" departPos="last" departLane="best" route="1070403831#1-AddedOnRampEdge_1040737038.qPKW.420.0" number="598" begin="25200.0" end="28800.0"/>
    <flow id="108162303_1141876515.qPKW.420.0" departSpeed="max" departPos="last" departLane="best" route="108162303_1141876515.qPKW.420.0" number="364" begin="25200.0" end="28800.0"/>
    <flow id="108162303_988591740#1.qPKW.420.0" departSpeed="max" departPos="last" departLane="best" route="108162303_988591740#1.qPKW.420.0" number="3205" begin="25200.0" end="28800.0"/>
    <flow id="277208926_634155175.qPKW.420.0" departSpeed="max" departPos="last" departLane="best" route="277208926_634155175.qPKW.420.0" number="1623" begin="25200.0" end="28800.0"/>
    <flow id="277208927#1-AddedOnRampEdge_1016548859.qPKW.420.0" departSpeed="max" departPos="last" departLane="best" route="277208927#1-AddedOnRampEdge_1016548859.qPKW.420.0" number="802" begin="25200.0" end="28800.0"/>
    <flow id="277208927#1-AddedOnRampEdge_971686034.qPKW.420.0" departSpeed="max" departPos="last" departLane="best" route="277208927#1-AddedOnRampEdge_971686034.qPKW.420.0" number="9" begin="25200.0" end="28800.0"/>
    <flow id="27828382_1040737038.qPKW.420.0" departSpeed="max" departPos="last" departLane="best" route="27828382_1040737038.qPKW.420.0" number="470" begin="25200.0" end="28800.0"/>
    <flow id="27828382_634155175.qPKW.420.0" departSpeed="max" departPos="last" departLane="best" route="27828382_634155175.qPKW.420.0" number="2772" begin="25200.0" end="28800.0"/>
    <flow id="1016548847_19442635.qPKW.480.0" departSpeed="max" departPos="last" departLane="best" route="1016548847_19442635.qPKW.480.0" number="1349" begin="28800.0" end="32400.0"/>
    <flow id="1016548860.217_971686034.qPKW.480.0" departSpeed="max" departPos="last" departLane="best" route="1016548860.217_971686034.qPKW.480.0" number="580" begin="28800.0" end="32400.0"/>
    <flow id="1070403831#1-AddedOnRampEdge_1040737038.qPKW.480.0" departSpeed="max" departPos="last" departLane="best" route="1070403831#1-AddedOnRampEdge_1040737038.qPKW.480.0" number="701" begin="28800.0" end="32400.0"/>
    <flow id="1070403831#1-AddedOnRampEdge_19442635.qPKW.480.0" departSpeed="max" departPos="last" departLane="best" route="1070403831#1-AddedOnRampEdge_19442635.qPKW.480.0" number="91" begin="28800.0" end="32400.0"/>
    <flow id="108162303_1141876515.qPKW.480.0" departSpeed="max" departPos="last" departLane="best" route="108162303_1141876515.qPKW.480.0" number="323" begin="28800.0" end="32400.0"/>
    <flow id="108162303_988591740#1.qPKW.480.0" departSpeed="max" departPos="last" departLane="best" route="108162303_988591740#1.qPKW.480.0" number="2796" begin="28800.0" end="32400.0"/>
    <flow id="277208926_634155175.qPKW.480.0" departSpeed="max" departPos="last" departLane="best" route="277208926_634155175.qPKW.480.0" number="970" begin="28800.0" end="32400.0"/>
    <flow id="277208927#1-AddedOnRampEdge_1016548859.qPKW.480.0" departSpeed="max" departPos="last" departLane="best" route="277208927#1-AddedOnRampEdge_1016548859.qPKW.480.0" number="925" begin="28800.0" end="32400.0"/>
    <flow id="277208927#1-AddedOnRampEdge_971686034.qPKW.480.0" departSpeed="max" departPos="last" departLane="best" route="277208927#1-AddedOnRampEdge_971686034.qPKW.480.0" number="46" begin="28800.0" end="32400.0"/>
    <flow id="27828382_634155175.qPKW.480.0" departSpeed="max" departPos="last" departLane="best" route="27828382_634155175.qPKW.480.0" number="2938" begin="28800.0" end="32400.0"/>
    <flow id="1016548847_19442635.qPKW.540.0" departSpeed="max" departPos="last" departLane="best" route="1016548847_19442635.qPKW.540.0" number="1209" begin="32400.0" end="36000.0"/>
    <flow id="1016548860.217_971686034.qPKW.540.0" departSpeed="max" departPos="last" departLane="best" route="1016548860.217_971686034.qPKW.540.0" number="465" begin="32400.0" end="36000.0"/>
    <flow id="1016548860.217_988591740#1.qPKW.540.0" departSpeed="max" departPos="last" departLane="best" route="1016548860.217_988591740#1.qPKW.540.0" number="123" begin="32400.0" end="36000.0"/>
    <flow id="1070403831#1-AddedOnRampEdge_1040737038.qPKW.540.0" departSpeed="max" departPos="last" departLane="best" route="1070403831#1-AddedOnRampEdge_1040737038.qPKW.540.0" number="723" begin="32400.0" end="36000.0"/>
    <flow id="108162303_1141876515.qPKW.540.0" departSpeed="max" departPos="last" departLane="best" route="108162303_1141876515.qPKW.540.0" number="253" begin="32400.0" end="36000.0"/>
    <flow id="108162303_988591740#1.qPKW.540.0" departSpeed="max" departPos="last" departLane="best" route="108162303_988591740#1.qPKW.540.0" number="2751" begin="32400.0" end="36000.0"/>
    <flow id="277208926_634155175.qPKW.540.0" departSpeed="max" departPos="last" departLane="best" route="277208926_634155175.qPKW.540.0" number="468" begin="32400.0" end="36000.0"/>
    <flow id="277208927#1-AddedOnRampEdge_1016548859.qPKW.540.0" departSpeed="max" departPos="last" departLane="best" route="277208927#1-AddedOnRampEdge_1016548859.qPKW.540.0" number="1042" begin="32400.0" end="36000.0"/>
    <flow id="27828382_1040737038.qPKW.540.0" departSpeed="max" departPos="last" departLane="best" route="27828382_1040737038.qPKW.540.0" number="22" begin="32400.0" end="36000.0"/>
    <flow id="27828382_634155175.qPKW.540.0" departSpeed="max" departPos="last" departLane="best" route="27828382_634155175.qPKW.540.0" number="3692" begin="32400.0" end="36000.0"/>
    <flow id="1016548847_19442635.qPKW.600.0" departSpeed="max" departPos="last" departLane="best" route="1016548847_19442635.qPKW.600.0" number="12" begin="36000.0" end="39600.0"/>
    <flow id="1070403831#1-AddedOnRampEdge_1040737038.qPKW.600.0" departSpeed="max" departPos="last" departLane="best" route="1070403831#1-AddedOnRampEdge_1040737038.qPKW.600.0" number="1" begin="36000.0" end="39600.0"/>
    <flow id="1070403831#1-AddedOnRampEdge_19442635.qPKW.600.0" departSpeed="max" departPos="last" departLane="best" route="1070403831#1-AddedOnRampEdge_19442635.qPKW.600.0" number="8" begin="36000.0" end="39600.0"/>
    <flow id="108162303_1141876515.qPKW.600.0" departSpeed="max" departPos="last" departLane="best" route="108162303_1141876515.qPKW.600.0" number="3" begin="36000.0" end="39600.0"/>
    <flow id="108162303_988591740#1.qPKW.600.0" departSpeed="max" departPos="last" departLane="best" route="108162303_988591740#1.qPKW.600.0" number="11" begin="36000.0" end="39600.0"/>
    <flow id="277208926_634155175.qPKW.600.0" departSpeed="max" departPos="last" departLane="best" route="277208926_634155175.qPKW.600.0" number="8" begin="36000.0" end="39600.0"/>
    <flow id="277208927#1-AddedOnRampEdge_1016548859.qPKW.600.0" departSpeed="max" departPos="last" departLane="best" route="277208927#1-AddedOnRampEdge_1016548859.qPKW.600.0" number="7" begin="36000.0" end="39600.0"/>
    <flow id="27828382_634155175.qPKW.600.0" departSpeed="max" departPos="last" departLane="best" route="27828382_634155175.qPKW.600.0" number="8" begin="36000.0" end="39600.0"/>
</additional>
