<configuration>
  <input>
    <net-file value="../../mediumnet.net.xml" />
    <route-files value="routes.rou.xml" />
    <additional-files value="../../mediumnet_taz_zones.taz.xml" />
  </input>
  <time>
    <begin value="0.0" />
    <end value="10800.0" />
    <step-length value="1.0" />
  </time>
</configuration>